src/tests/data/grids/RAW/IEEE 30 bus.rawx
{
    "network":{
        "caseid":{
            "fields":["ic", "sbase", "rev", "xfrrat", "nxfrat", "basfrq", "title1", "title2"], 
            "data":[0, 100.00, 35, 0, 0, 60.00, "08/20/93 UW ARCHIVE           100.0  1961 W IEEE 30 BUS TES", "GENERAL, THRSHZ=0.0001, PQBRAK=0.7, BLOWUP=5.0, MaxIsolLvls=4, CAMaxReptSln=20, ChkDupCntLbl=0"]
        }, 
        "gauss":{
            "fields":["itmx", "accp", "accq", "accm", "tol"], 
            "data":[100, 1.6, 1.6, 1.0, 0.0001]
        }, 
        "newton":{
            "fields":["itmxn", "accn", "toln", "vctolq", "vctolv", "dvlim", "ndvfct"], 
            "data":[20, 1.0, 0.1, 0.1, 0.00001, 0.99, 0.99]
        }, 
        "adjust":{
            "fields":["adjthr", "acctap", "taplim", "swvbnd", "mxtpss", "mxswim"], 
            "data":[0.005, 1.0, 0.05, 100.0, 99, 10]
        }, 
        "tysl":{
            "fields":["itmxty", "accty", "tolty"], 
            "data":[20, 1.0, 0.00001]
        }, 
        "rating":{
            "fields":["irate", "name", "desc"], 
            "data":[
                [1, "RATE1", "RATING SET 1"], 
                [2, "RATE2", "RATING SET 2"], 
                [3, "RATE3", "RATING SET 3"], 
                [4, "RATE4", "RATING SET 4"], 
                [5, "RATE5", "RATING SET 5"], 
                [6, "RATE6", "RATING SET 6"], 
                [7, "RATE7", "RATING SET 7"], 
                [8, "RATE8", "RATING SET 8"], 
                [9, "RATE9", "RATING SET 9"], 
                [10, "RATE10", "RATING SET 10"], 
                [11, "RATE11", "RATING SET 11"], 
                [12, "RATE12", "RATING SET 12"]
            ]
        }, 
        "bus":{
            "fields":["ibus", "name", "baskv", "ide", "area", "zone", "owner", "vm", "va", "nvhi", "nvlo", "evhi", "evlo"], 
            "data":[
                [1, "GLEN LYN", 132.0000, 3, 1, 1, 1, 1.06000, 98.4316, 1.10000, 0.90000, 1.10000, 0.90000], 
                [2, "CLAYTOR", 132.0000, 2, 1, 1, 1, 1.04313, 93.0798, 1.10000, 0.90000, 1.10000, 0.90000], 
                [3, "KUMIS", 132.0000, 1, 1, 1, 1, 1.02074, 90.8996, 1.10000, 0.90000, 1.10000, 0.90000], 
                [4, "HANCOCK", 132.0000, 1, 1, 1, 1, 1.01176, 89.1475, 1.10000, 0.90000, 1.10000, 0.90000], 
                [5, "FIELDALE", 132.0000, 2, 1, 1, 1, 1.01000, 84.2658, 1.10000, 0.90000, 1.10000, 0.90000], 
                [6, "ROANOKE", 132.0000, 1, 1, 1, 1, 1.01026, 87.3670, 1.10000, 0.90000, 1.10000, 0.90000], 
                [7, "BLAINE", 132.0000, 1, 1, 1, 1, 1.00238, 85.5665, 1.10000, 0.90000, 1.10000, 0.90000], 
                [8, "REUSENS", 132.0000, 2, 1, 1, 1, 1.01000, 86.6183, 1.10000, 0.90000, 1.10000, 0.90000], 
                [9, "ROANOKE", 1.0000, 1, 1, 1, 1, 1.05091, 84.3227, 1.10000, 0.90000, 1.10000, 0.90000], 
                [10, "ROANOKE", 33.0000, 1, 1, 1, 1, 1.04513, 82.7320, 1.10000, 0.90000, 1.10000, 0.90000], 
                [11, "ROANOKE", 11.0000, 2, 1, 1, 1, 1.08200, 84.3227, 1.10000, 0.90000, 1.10000, 0.90000], 
                [12, "HANCOCK", 33.0000, 1, 1, 1, 1, 1.05712, 83.4883, 1.10000, 0.90000, 1.10000, 0.90000], 
                [13, "HANCOCK", 11.0000, 2, 1, 1, 1, 1.07100, 83.4883, 1.10000, 0.90000, 1.10000, 0.90000], 
                [14, "BUS 14", 33.0000, 1, 1, 1, 1, 1.04228, 82.5962, 1.10000, 0.90000, 1.10000, 0.90000], 
                [15, "BUS 15", 33.0000, 1, 1, 1, 1, 1.03768, 82.5042, 1.10000, 0.90000, 1.10000, 0.90000], 
                [16, "BUS 16", 33.0000, 1, 1, 1, 1, 1.04439, 82.9053, 1.10000, 0.90000, 1.10000, 0.90000], 
                [17, "BUS 17", 33.0000, 1, 1, 1, 1, 1.03990, 82.5702, 1.10000, 0.90000, 1.10000, 0.90000], 
                [18, "BUS 18", 33.0000, 1, 1, 1, 1, 1.02815, 81.8899, 1.10000, 0.90000, 1.10000, 0.90000], 
                [19, "BUS 19", 33.0000, 1, 1, 1, 1, 1.02565, 81.7162, 1.10000, 0.90000, 1.10000, 0.90000], 
                [20, "BUS 20", 33.0000, 1, 1, 1, 1, 1.02974, 81.9128, 1.10000, 0.90000, 1.10000, 0.90000], 
                [21, "BUS 21", 33.0000, 1, 1, 1, 1, 1.03273, 82.2893, 1.10000, 0.90000, 1.10000, 0.90000], 
                [22, "BUS 22", 33.0000, 1, 1, 1, 1, 1.03326, 82.3035, 1.10000, 0.90000, 1.10000, 0.90000], 
                [23, "BUS 23", 33.0000, 1, 1, 1, 1, 1.02718, 82.1135, 1.10000, 0.90000, 1.10000, 0.90000], 
                [24, "BUS 24", 33.0000, 1, 1, 1, 1, 1.02158, 81.9370, 1.10000, 0.90000, 1.10000, 0.90000], 
                [25, "BUS 25", 33.0000, 1, 1, 1, 1, 1.01734, 82.3648, 1.10000, 0.90000, 1.10000, 0.90000], 
                [26, "BUS 26", 33.0000, 1, 1, 1, 1, 0.99966, 81.9452, 1.10000, 0.90000, 1.10000, 0.90000], 
                [27, "CLOVERDL", 33.0000, 1, 1, 1, 1, 1.02325, 82.8892, 1.10000, 0.90000, 1.10000, 0.90000], 
                [28, "CLOVERDL", 132.0000, 1, 1, 1, 1, 1.00682, 86.7432, 1.10000, 0.90000, 1.10000, 0.90000], 
                [29, "BUS 29", 33.0000, 1, 1, 1, 1, 1.00341, 81.6593, 1.10000, 0.90000, 1.10000, 0.90000], 
                [30, "BUS 30", 33.0000, 1, 1, 1, 1, 0.99194, 80.7765, 1.10000, 0.90000, 1.10000, 0.90000]
            ]
        }, 
        "load":{
            "fields":["ibus", "loadid", "stat", "area", "zone", "pl", "ql", "ip", "iq", "yp", "yq", "owner", "scale", "intrpt", "dgenp", "dgenq", "dgenm", "loadtype"], 
            "data":[
                [2, "1", 1, 1, 1, 21.700, 12.700, 0.000, 0.000, 0.000, 0.000, 1, 1, 0, 0.000, 0.000, 0, ""], 
                [3, "1", 1, 1, 1, 2.400, 1.200, 0.000, 0.000, 0.000, 0.000, 1, 1, 0, 0.000, 0.000, 0, ""], 
                [4, "1", 1, 1, 1, 7.600, 1.600, 0.000, 0.000, 0.000, 0.000, 1, 1, 0, 0.000, 0.000, 0, ""], 
                [5, "1", 1, 1, 1, 94.200, 19.000, 0.000, 0.000, 0.000, 0.000, 1, 1, 0, 0.000, 0.000, 0, ""], 
                [7, "1", 1, 1, 1, 22.800, 10.900, 0.000, 0.000, 0.000, 0.000, 1, 1, 0, 0.000, 0.000, 0, ""], 
                [8, "1", 1, 1, 1, 30.000, 30.000, 0.000, 0.000, 0.000, 0.000, 1, 1, 0, 0.000, 0.000, 0, ""], 
                [10, "1", 1, 1, 1, 5.800, 2.000, 0.000, 0.000, 0.000, 0.000, 1, 1, 0, 0.000, 0.000, 0, ""], 
                [12, "1", 1, 1, 1, 11.200, 7.500, 0.000, 0.000, 0.000, 0.000, 1, 1, 0, 0.000, 0.000, 0, ""], 
                [14, "1", 1, 1, 1, 6.200, 1.600, 0.000, 0.000, 0.000, 0.000, 1, 1, 0, 0.000, 0.000, 0, ""], 
                [15, "1", 1, 1, 1, 8.200, 2.500, 0.000, 0.000, 0.000, 0.000, 1, 1, 0, 0.000, 0.000, 0, ""], 
                [16, "1", 1, 1, 1, 3.500, 1.800, 0.000, 0.000, 0.000, 0.000, 1, 1, 0, 0.000, 0.000, 0, ""], 
                [17, "1", 1, 1, 1, 9.000, 5.800, 0.000, 0.000, 0.000, 0.000, 1, 1, 0, 0.000, 0.000, 0, ""], 
                [18, "1", 1, 1, 1, 3.200, 0.900, 0.000, 0.000, 0.000, 0.000, 1, 1, 0, 0.000, 0.000, 0, ""], 
                [19, "1", 1, 1, 1, 9.500, 3.400, 0.000, 0.000, 0.000, 0.000, 1, 1, 0, 0.000, 0.000, 0, ""], 
                [20, "1", 1, 1, 1, 2.200, 0.700, 0.000, 0.000, 0.000, 0.000, 1, 1, 0, 0.000, 0.000, 0, ""], 
                [21, "1", 1, 1, 1, 17.500, 11.200, 0.000, 0.000, 0.000, 0.000, 1, 1, 0, 0.000, 0.000, 0, ""], 
                [23, "1", 1, 1, 1, 3.200, 1.600, 0.000, 0.000, 0.000, 0.000, 1, 1, 0, 0.000, 0.000, 0, ""], 
                [24, "1", 1, 1, 1, 8.700, 6.700, 0.000, 0.000, 0.000, 0.000, 1, 1, 0, 0.000, 0.000, 0, ""], 
                [26, "1", 1, 1, 1, 3.500, 2.300, 0.000, 0.000, 0.000, 0.000, 1, 1, 0, 0.000, 0.000, 0, ""], 
                [29, "1", 1, 1, 1, 2.400, 0.900, 0.000, 0.000, 0.000, 0.000, 1, 1, 0, 0.000, 0.000, 0, ""], 
                [30, "1", 1, 1, 1, 10.600, 1.900, 0.000, 0.000, 0.000, 0.000, 1, 1, 0, 0.000, 0.000, 0, ""]
            ]
        }, 
        "fixshunt":{
            "fields":["ibus", "shntid", "stat", "gl", "bl"], 
            "data":[
                [10, "1", 1, 0.000, 19.000], 
                [24, "1", 1, 0.000, 4.300]
            ]
        }, 
        "generator":{
            "fields":["ibus", "machid", "pg", "qg", "qt", "qb", "vs", "ireg", "nreg", "mbase", "zr", "zx", "rt", "xt", "gtap", "stat", "rmpct", "pt", "pb", "baslod", "o1", "f1", "o2", "f2", "o3", "f3", "o4", "f4", "wmod", "wpf"], 
            "data":[
                [1, "1", 260.948, -16.787, 0.000, 0.000, 1.06000, 1, 0, 100.000, 0.00000E+0, 1.00000E+0, 0.00000E+0, 0.00000E+0, 1.00000, 1, 100.0, 10000.000, -10000.000, 0, 1, 1.0000, null, null, null, null, null, null, null, null], 
                [2, "1", 40.000, 50.000, 50.000, -40.000, 1.04500, 2, 0, 100.000, 0.00000E+0, 1.00000E+0, 0.00000E+0, 0.00000E+0, 1.00000, 1, 100.0, 10000.000, -10000.000, 0, 1, 1.0000, null, null, null, null, null, null, null, null], 
                [5, "1", 0.000, 36.850, 40.000, -40.000, 1.01000, 5, 0, 100.000, 0.00000E+0, 1.00000E+0, 0.00000E+0, 0.00000E+0, 1.00000, 1, 100.0, 10000.000, -10000.000, 0, 1, 1.0000, null, null, null, null, null, null, null, null], 
                [8, "1", 0.000, 37.144, 40.000, -10.000, 1.01000, 8, 0, 100.000, 0.00000E+0, 1.00000E+0, 0.00000E+0, 0.00000E+0, 1.00000, 1, 100.0, 10000.000, -10000.000, 0, 1, 1.0000, null, null, null, null, null, null, null, null], 
                [11, "1", 0.000, 16.172, 24.000, -6.000, 1.08200, 11, 0, 100.000, 0.00000E+0, 1.00000E+0, 0.00000E+0, 0.00000E+0, 1.00000, 1, 100.0, 10000.000, -10000.000, 0, 1, 1.0000, null, null, null, null, null, null, null, null], 
                [13, "1", 0.000, 10.619, 24.000, -6.000, 1.07100, 13, 0, 100.000, 0.00000E+0, 1.00000E+0, 0.00000E+0, 0.00000E+0, 1.00000, 1, 100.0, 10000.000, -10000.000, 0, 1, 1.0000, null, null, null, null, null, null, null, null]
            ]
        }, 
        "acline":{
            "fields":["ibus", "jbus", "ckt", "rpu", "xpu", "bpu", "name", "rate1", "rate2", "rate3", "rate4", "rate5", "rate6", "rate7", "rate8", "rate9", "rate10", "rate11", "rate12", "gi", "bi", "gj", "bj", "stat", "met", "len", "o1", "f1", "o2", "f2", "o3", "f3", "o4", "f4"], 
            "data":[
                [1, 2, "1", 1.92000E-02, 5.75000E-02, 0.05280, "", 130.00, 0.00, 0.00, 0.00, 0.00, 0.00, 0.00, 0.00, 0.00, 0.00, 0.00, 0.00, 0.00000, 0.00000, 0.00000, 0.00000, 1, 1, 0.00, 1, 1.0000, null, null, null, null, null, null], 
                [1, 3, "1", 4.52000E-02, 1.65200E-01, 0.04080, "", 130.00, 0.00, 0.00, 0.00, 0.00, 0.00, 0.00, 0.00, 0.00, 0.00, 0.00, 0.00, 0.00000, 0.00000, 0.00000, 0.00000, 1, 1, 0.00, 1, 1.0000, null, null, null, null, null, null], 
                [2, 4, "1", 5.70000E-02, 1.73700E-01, 0.03680, "", 65.00, 0.00, 0.00, 0.00, 0.00, 0.00, 0.00, 0.00, 0.00, 0.00, 0.00, 0.00, 0.00000, 0.00000, 0.00000, 0.00000, 1, 1, 0.00, 1, 1.0000, null, null, null, null, null, null], 
                [2, 5, "1", 4.72000E-02, 1.98300E-01, 0.04180, "", 130.00, 0.00, 0.00, 0.00, 0.00, 0.00, 0.00, 0.00, 0.00, 0.00, 0.00, 0.00, 0.00000, 0.00000, 0.00000, 0.00000, 1, 1, 0.00, 1, 1.0000, null, null, null, null, null, null], 
                [2, 6, "1", 5.81000E-02, 1.76300E-01, 0.03740, "", 65.00, 0.00, 0.00, 0.00, 0.00, 0.00, 0.00, 0.00, 0.00, 0.00, 0.00, 0.00, 0.00000, 0.00000, 0.00000, 0.00000, 1, 1, 0.00, 1, 1.0000, null, null, null, null, null, null], 
                [3, 4, "1", 1.32000E-02, 3.79000E-02, 0.00840, "", 130.00, 0.00, 0.00, 0.00, 0.00, 0.00, 0.00, 0.00, 0.00, 0.00, 0.00, 0.00, 0.00000, 0.00000, 0.00000, 0.00000, 1, 1, 0.00, 1, 1.0000, null, null, null, null, null, null], 
                [4, 6, "1", 1.19000E-02, 4.14000E-02, 0.00900, "", 90.00, 0.00, 0.00, 0.00, 0.00, 0.00, 0.00, 0.00, 0.00, 0.00, 0.00, 0.00, 0.00000, 0.00000, 0.00000, 0.00000, 1, 1, 0.00, 1, 1.0000, null, null, null, null, null, null], 
                [5, 7, "1", 4.60000E-02, 1.16000E-01, 0.02040, "", 70.00, 0.00, 0.00, 0.00, 0.00, 0.00, 0.00, 0.00, 0.00, 0.00, 0.00, 0.00, 0.00000, 0.00000, 0.00000, 0.00000, 1, 1, 0.00, 1, 1.0000, null, null, null, null, null, null], 
                [6, 7, "1", 2.67000E-02, 8.20000E-02, 0.01700, "", 130.00, 0.00, 0.00, 0.00, 0.00, 0.00, 0.00, 0.00, 0.00, 0.00, 0.00, 0.00, 0.00000, 0.00000, 0.00000, 0.00000, 1, 1, 0.00, 1, 1.0000, null, null, null, null, null, null], 
                [6, 8, "1", 1.20000E-02, 4.20000E-02, 0.00900, "", 32.00, 0.00, 0.00, 0.00, 0.00, 0.00, 0.00, 0.00, 0.00, 0.00, 0.00, 0.00, 0.00000, 0.00000, 0.00000, 0.00000, 1, 1, 0.00, 1, 1.0000, null, null, null, null, null, null], 
                [6, 28, "1", 1.69000E-02, 5.99000E-02, 0.01300, "", 0.00, 0.00, 0.00, 0.00, 0.00, 0.00, 0.00, 0.00, 0.00, 0.00, 0.00, 0.00, 0.00000, 0.00000, 0.00000, 0.00000, 1, 1, 0.00, 1, 1.0000, null, null, null, null, null, null], 
                [8, 28, "1", 6.36000E-02, 2.00000E-01, 0.04280, "", 0.00, 0.00, 0.00, 0.00, 0.00, 0.00, 0.00, 0.00, 0.00, 0.00, 0.00, 0.00, 0.00000, 0.00000, 0.00000, 0.00000, 1, 1, 0.00, 1, 1.0000, null, null, null, null, null, null], 
                [9, 10, "1", 0.00000E+00, 1.10000E-01, 0.00000, "", 0.00, 0.00, 0.00, 0.00, 0.00, 0.00, 0.00, 0.00, 0.00, 0.00, 0.00, 0.00, 0.00000, 0.00000, 0.00000, 0.00000, 1, 1, 0.00, 1, 1.0000, null, null, null, null, null, null], 
                [9, 11, "1", 0.00000E+00, 2.08000E-01, 0.00000, "", 65.00, 0.00, 0.00, 0.00, 0.00, 0.00, 0.00, 0.00, 0.00, 0.00, 0.00, 0.00, 0.00000, 0.00000, 0.00000, 0.00000, 1, 1, 0.00, 1, 1.0000, null, null, null, null, null, null], 
                [10, 17, "1", 3.24000E-02, 8.45000E-02, 0.00000, "", 0.00, 0.00, 0.00, 0.00, 0.00, 0.00, 0.00, 0.00, 0.00, 0.00, 0.00, 0.00, 0.00000, 0.00000, 0.00000, 0.00000, 1, 1, 0.00, 1, 1.0000, null, null, null, null, null, null], 
                [10, 20, "1", 9.36000E-02, 2.09000E-01, 0.00000, "", 32.00, 0.00, 0.00, 0.00, 0.00, 0.00, 0.00, 0.00, 0.00, 0.00, 0.00, 0.00, 0.00000, 0.00000, 0.00000, 0.00000, 1, 1, 0.00, 1, 1.0000, null, null, null, null, null, null], 
                [10, 21, "1", 3.48000E-02, 7.49000E-02, 0.00000, "", 0.00, 0.00, 0.00, 0.00, 0.00, 0.00, 0.00, 0.00, 0.00, 0.00, 0.00, 0.00, 0.00000, 0.00000, 0.00000, 0.00000, 1, 1, 0.00, 1, 1.0000, null, null, null, null, null, null], 
                [10, 22, "1", 7.27000E-02, 1.49900E-01, 0.00000, "", 0.00, 0.00, 0.00, 0.00, 0.00, 0.00, 0.00, 0.00, 0.00, 0.00, 0.00, 0.00, 0.00000, 0.00000, 0.00000, 0.00000, 1, 1, 0.00, 1, 1.0000, null, null, null, null, null, null], 
                [12, 13, "1", 0.00000E+00, 1.40000E-01, 0.00000, "", 65.00, 0.00, 0.00, 0.00, 0.00, 0.00, 0.00, 0.00, 0.00, 0.00, 0.00, 0.00, 0.00000, 0.00000, 0.00000, 0.00000, 1, 1, 0.00, 1, 1.0000, null, null, null, null, null, null], 
                [12, 14, "1", 1.23100E-01, 2.55900E-01, 0.00000, "", 0.00, 0.00, 0.00, 0.00, 0.00, 0.00, 0.00, 0.00, 0.00, 0.00, 0.00, 0.00, 0.00000, 0.00000, 0.00000, 0.00000, 1, 1, 0.00, 1, 1.0000, null, null, null, null, null, null], 
                [12, 15, "1", 6.62000E-02, 1.30400E-01, 0.00000, "", 32.00, 0.00, 0.00, 0.00, 0.00, 0.00, 0.00, 0.00, 0.00, 0.00, 0.00, 0.00, 0.00000, 0.00000, 0.00000, 0.00000, 1, 1, 0.00, 1, 1.0000, null, null, null, null, null, null], 
                [12, 16, "1", 9.45000E-02, 1.98700E-01, 0.00000, "", 16.00, 0.00, 0.00, 0.00, 0.00, 0.00, 0.00, 0.00, 0.00, 0.00, 0.00, 0.00, 0.00000, 0.00000, 0.00000, 0.00000, 1, 1, 0.00, 1, 1.0000, null, null, null, null, null, null], 
                [14, 15, "1", 2.21000E-01, 1.99700E-01, 0.00000, "", 16.00, 0.00, 0.00, 0.00, 0.00, 0.00, 0.00, 0.00, 0.00, 0.00, 0.00, 0.00, 0.00000, 0.00000, 0.00000, 0.00000, 1, 1, 0.00, 1, 1.0000, null, null, null, null, null, null], 
                [15, 18, "1", 1.07300E-01, 2.18500E-01, 0.00000, "", 16.00, 0.00, 0.00, 0.00, 0.00, 0.00, 0.00, 0.00, 0.00, 0.00, 0.00, 0.00, 0.00000, 0.00000, 0.00000, 0.00000, 1, 1, 0.00, 1, 1.0000, null, null, null, null, null, null], 
                [15, 23, "1", 1.00000E-01, 2.02000E-01, 0.00000, "", 0.00, 0.00, 0.00, 0.00, 0.00, 0.00, 0.00, 0.00, 0.00, 0.00, 0.00, 0.00, 0.00000, 0.00000, 0.00000, 0.00000, 1, 1, 0.00, 1, 1.0000, null, null, null, null, null, null], 
                [16, 17, "1", 5.24000E-02, 1.92300E-01, 0.00000, "", 16.00, 0.00, 0.00, 0.00, 0.00, 0.00, 0.00, 0.00, 0.00, 0.00, 0.00, 0.00, 0.00000, 0.00000, 0.00000, 0.00000, 1, 1, 0.00, 1, 1.0000, null, null, null, null, null, null], 
                [18, 19, "1", 6.39000E-02, 1.29200E-01, 0.00000, "", 16.00, 0.00, 0.00, 0.00, 0.00, 0.00, 0.00, 0.00, 0.00, 0.00, 0.00, 0.00, 0.00000, 0.00000, 0.00000, 0.00000, 1, 1, 0.00, 1, 1.0000, null, null, null, null, null, null], 
                [19, 20, "1", 3.40000E-02, 6.80000E-02, 0.00000, "", 16.00, 0.00, 0.00, 0.00, 0.00, 0.00, 0.00, 0.00, 0.00, 0.00, 0.00, 0.00, 0.00000, 0.00000, 0.00000, 0.00000, 1, 1, 0.00, 1, 1.0000, null, null, null, null, null, null], 
                [21, 22, "1", 1.16000E-02, 2.36000E-02, 0.00000, "", 0.00, 0.00, 0.00, 0.00, 0.00, 0.00, 0.00, 0.00, 0.00, 0.00, 0.00, 0.00, 0.00000, 0.00000, 0.00000, 0.00000, 1, 1, 0.00, 1, 1.0000, null, null, null, null, null, null], 
                [22, 24, "1", 1.15000E-01, 1.79000E-01, 0.00000, "", 0.00, 0.00, 0.00, 0.00, 0.00, 0.00, 0.00, 0.00, 0.00, 0.00, 0.00, 0.00, 0.00000, 0.00000, 0.00000, 0.00000, 1, 1, 0.00, 1, 1.0000, null, null, null, null, null, null], 
                [23, 24, "1", 1.32000E-01, 2.70000E-01, 0.00000, "", 0.00, 0.00, 0.00, 0.00, 0.00, 0.00, 0.00, 0.00, 0.00, 0.00, 0.00, 0.00, 0.00000, 0.00000, 0.00000, 0.00000, 1, 1, 0.00, 1, 1.0000, null, null, null, null, null, null], 
                [24, 25, "1", 1.88500E-01, 3.29200E-01, 0.00000, "", 0.00, 0.00, 0.00, 0.00, 0.00, 0.00, 0.00, 0.00, 0.00, 0.00, 0.00, 0.00, 0.00000, 0.00000, 0.00000, 0.00000, 1, 1, 0.00, 1, 1.0000, null, null, null, null, null, null], 
                [25, 26, "1", 2.54400E-01, 3.80000E-01, 0.00000, "", 0.00, 0.00, 0.00, 0.00, 0.00, 0.00, 0.00, 0.00, 0.00, 0.00, 0.00, 0.00, 0.00000, 0.00000, 0.00000, 0.00000, 1, 1, 0.00, 1, 1.0000, null, null, null, null, null, null], 
                [25, 27, "1", 1.09300E-01, 2.08700E-01, 0.00000, "", 0.00, 0.00, 0.00, 0.00, 0.00, 0.00, 0.00, 0.00, 0.00, 0.00, 0.00, 0.00, 0.00000, 0.00000, 0.00000, 0.00000, 1, 1, 0.00, 1, 1.0000, null, null, null, null, null, null], 
                [27, 29, "1", 2.19800E-01, 4.15300E-01, 0.00000, "", 0.00, 0.00, 0.00, 0.00, 0.00, 0.00, 0.00, 0.00, 0.00, 0.00, 0.00, 0.00, 0.00000, 0.00000, 0.00000, 0.00000, 1, 1, 0.00, 1, 1.0000, null, null, null, null, null, null], 
                [27, 30, "1", 3.20200E-01, 6.02700E-01, 0.00000, "", 0.00, 0.00, 0.00, 0.00, 0.00, 0.00, 0.00, 0.00, 0.00, 0.00, 0.00, 0.00, 0.00000, 0.00000, 0.00000, 0.00000, 1, 1, 0.00, 1, 1.0000, null, null, null, null, null, null], 
                [29, 30, "1", 2.39900E-01, 4.53300E-01, 0.00000, "", 0.00, 0.00, 0.00, 0.00, 0.00, 0.00, 0.00, 0.00, 0.00, 0.00, 0.00, 0.00, 0.00000, 0.00000, 0.00000, 0.00000, 1, 1, 0.00, 1, 1.0000, null, null, null, null, null, null]
            ]
        }, 
        "sysswd":{
            "fields":["ibus", "jbus", "ckt", "xpu", "rate1", "rate2", "rate3", "rate4", "rate5", "rate6", "rate7", "rate8", "rate9", "rate10", "rate11", "rate12", "stat", "nstat", "met", "stype", "name"], 
            "data":[]
        }, 
        "transformer":{
            "fields":["ibus", "jbus", "kbus", "ckt", "cw", "cz", "cm", "mag1", "mag2", "nmet", "name", "stat", "o1", "f1", "o2", "f2", "o3", "f3", "o4", "f4", "vecgrp", "zcod", "r1_2", "x1_2", "sbase1_2", "r2_3", "x2_3", "sbase2_3", "r3_1", "x3_1", "sbase3_1", "vmstar", "anstar", "windv1", "nomv1", "ang1", "wdg1rate1", "wdg1rate2", "wdg1rate3", "wdg1rate4", "wdg1rate5", "wdg1rate6", "wdg1rate7", "wdg1rate8", "wdg1rate9", "wdg1rate10", "wdg1rate11", "wdg1rate12", "cod1", "cont1", "node1", "rma1", "rmi1", "vma1", "vmi1", "ntp1", "tab1", "cr1", "cx1", "cnxa1", "windv2", "nomv2", "ang2", "wdg2rate1", "wdg2rate2", "wdg2rate3", "wdg2rate4", "wdg2rate5", "wdg2rate6", "wdg2rate7", "wdg2rate8", "wdg2rate9", "wdg2rate10", "wdg2rate11", "wdg2rate12", "cod2", "cont2", "node2", "rma2", "rmi2", "vma2", "vmi2", "ntp2", "tab2", "cr2", "cx2", "cnxa2", "windv3", "nomv3", "ang3", "wdg3rate1", "wdg3rate2", "wdg3rate3", "wdg3rate4", "wdg3rate5", "wdg3rate6", "wdg3rate7", "wdg3rate8", "wdg3rate9", "wdg3rate10", "wdg3rate11", "wdg3rate12", "cod3", "cont3", "node3", "rma3", "rmi3", "vma3", "vmi3", "ntp3", "tab3", "cr3", "cx3", "cnxa3"], 
            "data":[
                [4, 12, 0, "1", 1, 1, 1, 0.00000E+00, 0.00000E+00, 2, "", 1, 1, 1.0000, 0, 1.0000, 0, 1.0000, 0, 1.0000, "", null, 0.00000E+00, 2.56000E-01, 100.00, null, null, null, null, null, null, null, null, 0.93200, 0.000, 0.000, 65.00, 0.00, 0.00, 0.00, 0.00, 0.00, 0.00, 0.00, 0.00, 0.00, 0.00, 0.00, 0, 0, 0, 1.50000, 0.51000, 1.50000, 0.51000, 159, 0, 0.00000, 0.00000, 0.000, 1.00000, 0.00, null, null, null, null, null, null, null, null, null, null, null, null, null, null, null, null, null, null, null, null, null, null, null, null, null, null, null, null, null, null, null, null, null, null, null, null, null, null, null, null, null, null, null, null, null, null, null, null, null, null, null, null], 
                [6, 9, 0, "1", 1, 1, 1, 0.00000E+00, 0.00000E+00, 2, "", 1, 1, 1.0000, 0, 1.0000, 0, 1.0000, 0, 1.0000, "", null, 0.00000E+00, 2.08000E-01, 100.00, null, null, null, null, null, null, null, null, 0.97800, 0.000, 0.000, 65.00, 0.00, 0.00, 0.00, 0.00, 0.00, 0.00, 0.00, 0.00, 0.00, 0.00, 0.00, 0, 0, 0, 1.50000, 0.51000, 1.50000, 0.51000, 159, 0, 0.00000, 0.00000, 0.000, 1.00000, 0.00, null, null, null, null, null, null, null, null, null, null, null, null, null, null, null, null, null, null, null, null, null, null, null, null, null, null, null, null, null, null, null, null, null, null, null, null, null, null, null, null, null, null, null, null, null, null, null, null, null, null, null, null], 
                [6, 10, 0, "1", 1, 1, 1, 0.00000E+00, 0.00000E+00, 2, "", 1, 1, 1.0000, 0, 1.0000, 0, 1.0000, 0, 1.0000, "", null, 0.00000E+00, 5.56000E-01, 100.00, null, null, null, null, null, null, null, null, 0.96900, 0.000, 0.000, 32.00, 0.00, 0.00, 0.00, 0.00, 0.00, 0.00, 0.00, 0.00, 0.00, 0.00, 0.00, 0, 0, 0, 1.50000, 0.51000, 1.50000, 0.51000, 159, 0, 0.00000, 0.00000, 0.000, 1.00000, 0.00, null, null, null, null, null, null, null, null, null, null, null, null, null, null, null, null, null, null, null, null, null, null, null, null, null, null, null, null, null, null, null, null, null, null, null, null, null, null, null, null, null, null, null, null, null, null, null, null, null, null, null, null], 
                [28, 27, 0, "1", 1, 1, 1, 0.00000E+00, 0.00000E+00, 2, "", 1, 1, 1.0000, 0, 1.0000, 0, 1.0000, 0, 1.0000, "", null, 0.00000E+00, 3.96000E-01, 100.00, null, null, null, null, null, null, null, null, 0.96800, 0.000, 0.000, 0.00, 0.00, 0.00, 0.00, 0.00, 0.00, 0.00, 0.00, 0.00, 0.00, 0.00, 0.00, 0, 0, 0, 1.50000, 0.51000, 1.50000, 0.51000, 159, 0, 0.00000, 0.00000, 0.000, 1.00000, 0.00, null, null, null, null, null, null, null, null, null, null, null, null, null, null, null, null, null, null, null, null, null, null, null, null, null, null, null, null, null, null, null, null, null, null, null, null, null, null, null, null, null, null, null, null, null, null, null, null, null, null, null, null]
            ]
        }, 
        "area":{
            "fields":["iarea", "isw", "pdes", "ptol", "arname"], 
            "data":[
                [1, 0, 0.000, 1.000, "1"]
            ]
        }, 
        "twotermdc":{
            "fields":["name", "mdc", "rdc", "setvl", "vschd", "vcmod", "rcomp", "delti", "met", "dcvmin", "cccitmx", "cccacc", "ipr", "nbr", "anmxr", "anmnr", "rcr", "xcr", "ebasr", "trr", "tapr", "tmxr", "tmnr", "stpr", "icr", "ndr", "ifr", "itr", "idr", "xcapr", "ipi", "nbi", "anmxi", "anmni", "rci", "xci", "ebasi", "tri", "tapi", "tmxi", "tmni", "stpi", "ici", "ndi", "ifi", "iti", "idi", "xcapi"], 
            "data":[]
        }, 
        "vscdc":{
            "fields":["name", "mdc", "rdc", "o1", "f1", "o2", "f2", "o3", "f3", "o4", "f4", "ibus1", "type1", "mode1", "dcset1", "acset1", "aloss1", "bloss1", "minloss1", "smax1", "imax1", "pwf1", "maxq1", "minq1", "vsreg1", "nreg1", "rmpct1", "ibus2", "type2", "mode2", "dcset2", "acset2", "aloss2", "bloss2", "minloss2", "smax2", "imax2", "pwf2", "maxq2", "minq2", "vsreg2", "nreg2", "rmpct2"], 
            "data":[]
        }, 
        "impcor":{
            "fields":["itable", "tap", "refact", "imfact"], 
            "data":[]
        }, 
        "ntermdc":{
            "fields":["name", "nconv", "ndcbs", "ndcln", "mdc", "vconv", "vcmod", "vconvn"], 
            "data":[]
        }, 
        "ntermdcconv":{
            "fields":["name", "ib", "nbrdg", "angmx", "angmn", "rc", "xc", "ebas", "tr", "tap", "tpmx", "tpmn", "tstp", "setvl", "dcpf", "marg", "cnvcod"], 
            "data":[]
        }, 
        "ntermdcbus":{
            "fields":["name", "idc", "ib", "area", "zone", "dcname", "idc2", "rgrnd", "owner"], 
            "data":[]
        }, 
        "ntermdclink":{
            "fields":["name", "idc", "jdc", "dcckt", "met", "rdc", "ldc"], 
            "data":[]
        }, 
        "msline":{
            "fields":["ibus", "jbus", "mslid", "met", "dum1", "dum2", "dum3", "dum4", "dum5", "dum6", "dum7", "dum8", "dum9"], 
            "data":[]
        }, 
        "zone":{
            "fields":["izone", "zoname"], 
            "data":[
                [1, "IEEE 30"]
            ]
        }, 
        "iatrans":{
            "fields":["arfrom", "arto", "trid", "ptran"], 
            "data":[]
        }, 
        "owner":{
            "fields":["iowner", "owname"], 
            "data":[
                [1, "1"]
            ]
        }, 
        "facts":{
            "fields":["name", "ibus", "jbus", "mode", "pdes", "qdes", "vset", "shmx", "trmx", "vtmn", "vtmx", "vsmx", "imx", "linx", "rmpct", "owner", "set1", "set2", "vsref", "fcreg", "nreg", "mname"], 
            "data":[]
        }, 
        "swshunt":{
            "fields":["ibus", "shntid", "modsw", "adjm", "stat", "vswhi", "vswlo", "swreg", "nreg", "rmpct", "rmidnt", "binit", "s1", "n1", "b1", "s2", "n2", "b2", "s3", "n3", "b3", "s4", "n4", "b4", "s5", "n5", "b5", "s6", "n6", "b6", "s7", "n7", "b7", "s8", "n8", "b8"], 
            "data":[]
        }, 
        "gne":{
            "fields":["name", "model", "nterm", "bus1", "bus2", "nreal", "nintg", "nchar", "stat", "owner", "nmet", "real1", "real2", "real3", "real4", "real5", "real6", "real7", "real8", "real9", "real10", "intg1", "intg2", "intg3", "intg4", "intg5", "intg6", "intg7", "intg8", "intg9", "intg10", "char1", "char2", "char3", "char4", "char5", "char6", "char7", "char8", "char9", "char10"], 
            "data":[]
        }, 
        "indmach":{
            "fields":["ibus", "imid", "stat", "sc", "dc", "area", "zone", "owner", "tc", "bc", "mbase", "ratekv", "pcode", "pset", "hconst", "aconst", "bconst", "dconst", "econst", "ra", "xa", "xm", "r1", "x1", "r2", "x2", "x3", "e1", "se1", "e2", "se2", "ia1", "ia2", "xamult"], 
            "data":[]
        }, 
        "sub":{
            "fields":["isub", "name", "lati", "long", "srg"], 
            "data":[]
        }, 
        "subnode":{
            "fields":["isub", "inode", "name", "ibus", "stat", "vm", "va"], 
            "data":[]
        }, 
        "subswd":{
            "fields":["isub", "inode", "jnode", "swdid", "name", "type", "stat", "nstat", "xpu", "rate1", "rate2", "rate3"], 
            "data":[]
        }, 
        "subterm":{
            "fields":["isub", "inode", "type", "eqid", "ibus", "jbus", "kbus"], 
            "data":[]
        }
    }
}
